Circuit: * C:\Users\Ayden Murray\Documents\LTspiceXVII\doubleClapSim.asc

Instance "m:u2:4": Length shorter than recommended for a level 1 MOSFET.
Instance "m:u2:3": Length shorter than recommended for a level 1 MOSFET.
Instance "m:u2:2": Length shorter than recommended for a level 1 MOSFET.
Instance "m:u2:1": Length shorter than recommended for a level 1 MOSFET.
Direct Newton iteration for .op point succeeded.

Date: Wed Jul 17 17:15:03 2019
Total elapsed time: 0.083 seconds.

tnom = 27
temp = 27
method = modified trap
totiter = 2191
traniter = 2162
tranpoints = 1047
accept = 1046
rejected = 1
matrix size = 49
fillins = 79
solver = Normal
Matrix Compiler1: 7.51 KB object code size  1.3/0.7/[0.4]
Matrix Compiler2: 5.59 KB object code size  0.5/0.6/[0.4]

